Shreeji
 
Kumawat
 
shreejikumawat
@gmail.com
 
|
 
+91
 
9413337993
 
|
  
www.linkedin.com/in/shreejik
 
|
 
github.com/achilles-05/Portfolio
 
 
Profile
 
Second-year
 
Mechanical
 
Engineering
 
researcher-engineer
 
with
 
a
 
peer-reviewed
 
publication
 
at
 
an
 
international
 
conference
 
(ICSV32,
 
Istanbul),
 
active
 
industry
 
internships
 
in
 
CFD/FSI
 
simulation,
 
and
 
a
 
track
 
record
 
of
 
top-tier
 
competitive
 
performance
 
across
 
10+
 
national
 
and
 
global
 
challenges.
 
Core
 
expertise
 
spans
 
high-fidelity
 
aerodynamics
 
(ANSYS
 
Fluent,
 
OpenFOAM,
 
OpenFAST),
 
aeroelastic-ML
 
hybrid
 
frameworks,
 
and
 
autonomous
 
systems.
 
Passionate
 
about
 
advancing
 
research
 
at
 
the
 
intersection
 
of
 
aerospace
 
engineering,
 
renewable
 
energy,
 
and
 
intelligent
 
simulation.
 
 
 
Education
 
Bachelor
 
of
 
Technology
 
in
 
Mechanical
 
Engineering
                                                                      
Expected
 
Graduation-2028
 
Mahindra
 
University,
 
Hyderabad
                                                                                                                   
CGPA:
 
9.5/10
 
(Batch
 
Rank
 
1/100)
 
 
Publications
 
Vortex-induced
 
Vibrations
 
in
 
15MW
 
Offshore
 
Wind
 
Turbine
 
Blades
                                                                    
Mar.
 
2026
 
 
International
 
Congress
 
of
 
Sound
 
&
 
Vibrations
 
(ICSV32)
 
Istanbul,
 
Turkey
 
 
●
 
Received
 
a
 
strong
 
acceptance
 
on
 
the
 
first
 
attempt
 
with
 
unanimous
 
reviewer
 
scores
 
of
 
10/10
 
during
 
peer
 
review.
 
 
●
 
Designed
 
an
 
end-to-end
 
aeroelastic–CFD–ML
 
pipeline
 
for
 
vortex-induced
 
vibrations
 
in
 
15
 
MW
 
wind
 
turbine
 
blades
 
using
 
dynamic
 
meshing
 
with
 
k–
ω
 
SST
 
turbulence
 
closure.
 
●
 
 
Integrated
 
high-fidelity
 
CFD
 
with
 
a
 
Gaussian
 
Process
 
Regressor
 
achieving
 
~0.8%
 
RMSE
 
for
 
near-exact
 
stress
 
prediction
 
over
 
sparse
 
sensor
 
data.
 
 
●
 
Derived
 
a
 
pitch
 
control
 
strategy
 
that
 
reduced
 
peak
 
flap-wise
 
stresses
 
by
 
~20%,
 
demonstrating
 
direct
 
structural
 
load
 
mitigation
 
for
 
utility-scale
 
turbines.
 
●
 
Conducted
 
tuning-factor
 
(Λ)
 
resonance
 
analysis
 
to
 
identify
 
critical
 
aeroelastic
 
lock-in
 
regimes
 
under
 
operational
 
wind
 
conditions
 
 
 
Research
 
&
 
Industry
 
Experience
 
CFD
 
Consultancy
 
Project
 
Intern
                                                                                                            
Mar.
 
2026
 
–
 
May.
 
2026
 
WindStream
 
Technologies
 
Pvt.
 
Ltd.
 
(Hyderabad,
 
Telangana)
    
                                                        
 
●
 
Driving
 
helical
 
VAWT
 
power
 
output
 
from
 
1
 
kW
 
→
 
1.5
 
kW
 
(+50%)
 
through
 
CFD-led
 
flow
 
attachment
 
optimization
 
and
 
cyclic
 
loss
 
reduction.
 
●
 
Executing
 
a
 
parametric
 
study
 
across
 
rotor
 
diameter,
 
aspect
 
ratio,
 
curvature,
 
and
 
helical
 
twist
 
angle
 
to
 
quantify
 
aerodynamic
 
efficiency
 
trade-offs.
 
●
 
Coupling
 
aerodynamic
 
load
 
fields
 
with
 
structural
 
FEA
 
via
 
fluid-structure
 
interaction
 
(FSI)
 
to
 
evaluate
 
fatigue
 
and
 
deformation
 
limits
 
under
 
real
 
operating
 
loads
 
 
 
Engineering
 
Aerodynamics
 
Intern
                                                                                                           
Nov.
 
2025
 
–
 
Jan.
 
2026
 
Feynman
 
Aerospace
 
(Remote)
                                                            
 
●
 
Performed
 
CFD-based
 
lift,
 
drag,
 
and
 
wake
 
characterisation
 
for
 
UAV
 
and
 
small-aircraft
 
configurations
 
across
 
multiple
 
flight
 
regimes.
 
●
 
Led
 
airfoil
 
selection
 
and
 
geometry
 
refinement
 
cycles,
 
producing
 
performance
 
comparisons
 
that
 
directly
 
informed
 
design
 
decisions.
 
 Project
 
Intern
                                                                                                                                             
Oct.
 
2025
 
–
 
Nov.
 
2025
 
Skyline
 
Space
 
(Coimbatore,
 
Tamil
 
Nadu)
                                                             
 
●
 
Applied
 
fluidic
 
propulsion
 
theory
 
and
 
boundary
 
layer
 
analysis
 
in
 
ANSYS
 
Fluent;
 
contributed
 
to
 
preliminary
 
aircraft
 
design
 
and
 
optimisation
 
exercises.
 
 
Research
 
Intern
                                                                                                                                             
Jan.
 
2025
 
–
 
Jul.
 
2025
 
Thin
 
Films
 
Lab
 
&
 
Fluid
 
and
 
Heat
 
Transfer
 
Lab
 
(Mahindra
 
University)
                                                              
 
●
 
Interfaced
 
a
 
Vector
 
Network
 
Analyzer
 
for
 
Ferromagnetic
 
Resonance
 
(FMR)
 
experiments
 
via
 
LabVIEW
 
and
 
Python
 
scripting,
 
reducing
 
manual
 
measurement
 
setup
 
time.
 
●
 
Simulated
 
immersion
 
cooling
 
for
 
Li-Ion
 
battery
 
packs
 
in
 
ANSYS
 
Fluent,
 
optimising
 
thermal
 
dissipation
 
pathways
 
for
 
improved
 
pack
 
safety
 
margins.
 
 
CAD
 
Intern
                                                                                                                                                 
Oct.
 
2024
 
–
 
Dec.
 
2024
 
Extrive
 
Innovations
 
Pvt.
 
Ltd.
 
(Hyderabad,
 
Telangana)
 
                                                             
 
●
 
Developed
 
detailed
 
exosuit
 
component
 
models
 
in
 
AutoCAD
 
Inventor
 
to
 
manufacturing-specification
 
tolerances,
 
contributing
 
to
 
production-ready
 
design
 
packages.
 
 
 
Competitions
 
&
 
Projects
 
 
International
 
Quant
 
Championship
 
–
 
Ranked
 
top
 
2%
 
globally
 
(Gold
 
Level
 
Qualiﬁer)
                                                         
May.
 
2026
 
 
World
 
Quant
 
BRAIN
 
●
 
Ranked
 
in
 
3,458
 
out
 
of
 
150,000+
 
global
 
participants,
 
achieving
 
Gold
 
level
 
status
 
and
 
successfully
 
qualifying
 
for
 
Stage
 
1.
 
●
 
Developed
 
and
 
implemented
 
40
 
winning
 
predictive
 
alpha
 
formulas,
 
leveraging
 
advanced
 
quantitative
 
modeling
 
and
 
statistical
 
arbitrage
 
strategies.
 
 
 
F1
 
Rear
 
Wing
 
Design
 
&
 
CFD
 
Validation
  
–
 
Top
 
10
 
out
 
of
 
6,800+
 
(National
 
Finalist,
 
Round
 
3)
                                       
Feb.
 
2026
 
 
BITS
 
Pilani
 
APOGEE
 
Airfoil
 
Design
 
Challenge,
 
2026
 
 
●
 
Designed
 
and
 
optimized
 
a
 
multi-element
 
F1
 
rear
 
wing
 
(custom
 
airfoils,
 
slot-gap
 
flow
 
control,
 
advanced
 
endplate
 
vortex
 
management)
 
for
 
extreme
 
downforce
 
under
 
constraints.
 
●
 
Achieved
 
high
 
aerodynamic
 
performance
 
(Cl
 
=
 
3.8),
 
validated
 
through
 
CFD
 
analysis
 
of
 
the
 
final
 
design.
 
 
AI
 
Student
 
of
 
the
 
Year
 
Hackathon
 
–
 
Won
 
1st
 
position
                                                                                                                    
Nov.
 
2025
 
Mechanics
 
&
 
Aerospace
 
category
 
●
 
Achieved
 
a
 
perfect
 
100/100
 
evaluation
 
score
 
for
 
engineering
 
ambition
 
and
 
scope.
 
●
 
Implemented
 
an
 
Inverse
 
Kinematics
 
simulator
 
for
 
a
 
two-joint
 
robotic
 
arm,
 
integrating
 
GUI-driven
 
control,
 
obstacle
 
avoidance,
 
multi-path
 
planning,
 
and
 
real-time
 
animation
 
with
 
a
 
large-scale
 
code
 
backend
 
(900+
 
lines).
 
 
Urban
 
Rescue
 
Bot
 
CAD
 
Design
 
–
 
Won
 
1st
 
position
                                                                                                                          
Oct.
 
2025
 
IEEE
 
Robotics
 
Competition
 
●
 
Designed
 
a
 
mechanically
 
constrained
 
rescue
 
robot
 
for
 
post-earthquake
 
navigation,
 
debris
 
handling,
 
and
 
multi-robot
 
assistance.
 
●
 
Developed
 
a
 
robotic
 
CAD
 
under
 
time
 
constraint
 
of
 
4
 
hours
 
that
 
enabled
 
terrain
 
traversal,
 
payload
 
delivery
 
and
 
tool
 
assembly.
 
 
 
Autonomous
 
Visual
 
Navigation
 
Drone
 
–
 
Successfully
 
qualiﬁed
 
1st
 
nation-wide
 
round
                                                        
Aug.
 
2025
 
MATLAB
 
Minidrone
 
Competition
 
2025
 
●
 
Designed
 
and
 
simulated
 
a
 
fully
 
autonomous
 
Parrot
 
Mambo
 
drone
 
in
 
MATLAB
 
Simulink
 
with
 
custom
 
flight
 
logic
 
control.
 
●
 
Developed
 
an
 
image-processing
 
pipeline
 
for
 
real-time
 
path
 
detection
 
and
 
implemented
 
PID-based
 
autonomous
 
navigation.
 
 Autonomous
 
Drone
 
Development
 
Competition
 
-
 
Ranked
 
19th
 
on
 
National
 
Level
                                                              
Mar.
 
2025
 
SAE
 
India
 
●
 
Participated
 
in
 
a
 
10-member
 
team
 
to
 
develop
 
an
 
unmanned
 
drone
 
optimized
 
for
 
payload
 
delivery
 
and
 
mission
 
adaptability.
 
●
 
Modeled
 
a
 
modular
 
drone
 
frame
 
using
 
SolidWorks,
 
focusing
 
on
 
lightweight
 
and
 
crash-resilient
 
design.
 
 
 
RoboWARS
 
Team
 
Mechanical
 
Division
 
-
 
Won
 
3rd
 
Position
                                                                                                           
Jan.
 
2025
 
Mahindra
 
University
 
●
 
Designed
 
and
 
assembled
 
a
 
combat
 
robot
 
chassis
  
with
 
SolidWorks
 
based
 
impact
 
analysis
 
and
 
iterative
 
redesign.
 
 
 
Leadership
 
Vice
 
Head
 
-
 
AERO
 
Club,
 
Mahindra
 
University
                                                                                           
Oct.
 
2024
 
-
 
Present
 
●
 
Directing
 
mechanical
 
design
 
and
 
structural
 
analysis
 
for
 
live
 
aerospace
 
projects;
 
coordinating
 
a
 
multi-discipline
 
team
 
on
 
hardware
 
prototyping
 
and
 
design
 
reviews.
 
 
Skills
 
Simulation
 
&
 
Analysis:
  
CFD
 
|
 
FEA
 
|
 
Fluid-Structure
 
Interaction
 
(FSI)
 
|
 
Dynamic
 
Meshing
 
|
 
Turbulence
 
Modelling
 
|
 
Heat
 
Transfer
 
Analysis
 
|
 
ANSYS
 
Fluent
 
|
 
ANSYS
 
Mechanical
 
|
 
OpenFOAM
 
|
 
OpenFAST
 
|
 
XFOIL
 
 
CAD
 
&
 
Manufacturing:
 
SolidWorks
 
|
 
CATIA
 
|
 
Fusion
 
360
 
|
 
AutoCAD/Inventor
 
|
 
3D
 
Printing
 
|
 
CNC
 
Milling
 
 
Programming
 
&
 
ML:
  
Python
 
|
 
MATLAB
 
|
 
C++
 
|
 
Arduino
 
|
 
LabVIEW
 
|
 
Simulink
 
|
 
ROS
 
|
 
Machine
 
Learning
 
|
 
Computer
 
Vision
 
|
 
PID
 
Control
 
|
 
Image
 
Processing
 
 
Research
 
Domains:
  
Wind
 
Turbine
 
Aeroelastics
 
|
 
Wind
 
Turbine
 
Dynamics
 
|
 
VAWT/HAWT
 
Optimisation
 
|
 
UAV
 
Systems
 
|
 
Drone
 
Design
 
|
 
Structural
 
Dynamics
 
|
 
Autonomous
 
Navigation
 
|
 
Robotics
 
 
 
Achievements
 
&
 
Honours
 
 
●
 
Merit
 
Scholarship
 
Award
 
(Mahindra
 
University)
 
-
 
Received
 
scholarships
 
worth
 
₹3,00,000
 
for
 
top
 
academic
 
performance.
 
●
 
IIT-JEE
 
Advanced
 
-
 
Cracked
  
JEE
 
Advanced
 
2024
 
and
 
ranked
 
among
 
TOP
 
10%
 
candidates
 
(AIR
 
20K).
 
●
 
JEE
 
Mains
 
-
 
Scored
 
94.6%tile
 
with
 
a
 
97%tile
 
in
 
Mathematics
 
section.
 
●
 
IAAC
 
-
 
Received
 
gold
 
honor
 
and
 
AIR
 
3
 
in
 
International
 
Astrophysics
 
and
 
Astronomy
 
Competition
 
2022.
 
●
 
NATMATSCI
 
-
 
Received
 
110%
 
scholarship
 
from
 
the
 
National
 
Mathematics
 
and
 
Science
 
College,
 
London
 
in
 
10th
 
grade.
 
●
 
SAT
 
-
 
Scored
 
total
 
1560
 
marks
 
with
 
770
 
in
 
Reading
 
&
 
Writing
 
and
 
790
 
in
 
Math.
 
●
 
IELTS
 
(2022)
 
-
 
Scored
 
band
 
8.5/9
 
overall.
 